@<TRIPOS>MOLECULE
MOL
12 12 1
SMALL
USER_CHARGES
@<TRIPOS>ATOM
1	C1    -0.7131     1.2038     0.0000	C.2	1	MOL   	-0.0457
2	C2    -0.0090    -0.0157     0.0000	C.2	1	MOL   	-0.0645
3	C3     1.3990    -0.0157     0.0000	C.2	1	MOL   	-0.0457
4	C4     2.1031     1.2038     0.0000	C.2	1	MOL   	-0.0090
5	C5     1.3990     2.4232    -0.0000	C.2	1	MOL   	0.0221
6	C6    -0.0090     2.4232    -0.0000	C.2	1	MOL   	-0.0090
7	H1    -1.7355     1.2038    -0.0000	H	1	MOL   	0.0623
8	H2    -0.5203    -0.9011    -0.0000	H	1	MOL   	0.0622
9	H3     1.9103    -0.9011    -0.0000	H	1	MOL   	0.0623
10	H4     3.1255     1.2038    -0.0000	H	1	MOL   	0.0653
11	F1     1.9103     3.3087     0.0000	F	1	MOL   	-0.1656
12	H5    -0.5203     3.3087     0.0000	H	1	MOL   	0.0653
@<TRIPOS>BOND
1	1	2	1
2	2	3	2
3	3	4	1
4	4	5	2
5	5	6	1
6	1	6	2
7	1	7	1
8	2	8	1
9	3	9	1
10	4	10	1
11	5	11	1
12	6	12	1
@<TRIPOS>SUBSTRUCTURE
1	MOL   	1
